NSC 70955
 OpenBabel04221014273D

 21 21  0  0  0  0  0  0  0  0999 V2000
   -1.2010    0.7407   -0.0140 C   0  0  0  0  0
   -1.2010   -0.6460    0.0005 C   0  0  0  0  0
   -0.0000    1.4340   -0.0212 C   0  0  0  0  0
    0.0000   -1.3393    0.0079 C   0  0  0  0  0
    1.2010    0.7407   -0.0144 C   0  0  0  0  0
    1.2010   -0.6460    0.0006 C   0  0  0  0  0
   -0.0000    2.7929   -0.0355 O   0  0  0  0  0
    2.3778   -1.3254    0.0083 O   0  0  0  0  0
    3.4195   -0.3472   -0.0021 C   0  0  0  0  0
   -2.3778   -1.3254    0.0081 O   0  0  0  0  0
   -3.4195   -0.3472   -0.0019 C   0  0  0  0  0
   -2.1363    1.2806   -0.0243 H   0  0  0  0  0
    0.0000   -2.4193    0.0196 H   0  0  0  0  0
    2.1363    1.2807   -0.0203 H   0  0  0  0  0
   -0.0001    3.0821    0.8873 H   0  0  0  0  0
    4.3879   -0.8476    0.0036 H   0  0  0  0  0
    3.3329    0.2664   -0.8988 H   0  0  0  0  0
    3.3324    0.2857    0.8811 H   0  0  0  0  0
   -4.3879   -0.8476    0.0037 H   0  0  0  0  0
   -3.3324    0.2854    0.8815 H   0  0  0  0  0
   -3.3330    0.2667   -0.8984 H   0  0  0  0  0
 12  1  1  0  0  0
  3  1  1  0  0  0
  1  2  2  0  0  0
  2  4  1  0  0  0
  2 10  1  0  0  0
  7  3  1  0  0  0
  3  5  2  0  0  0
  6  4  2  0  0  0
  4 13  1  0  0  0
 14  5  1  0  0  0
  5  6  1  0  0  0
  6  8  1  0  0  0
  7 15  1  0  0  0
  9  8  1  0  0  0
 17  9  1  0  0  0
  9 16  1  0  0  0
  9 18  1  0  0  0
 11 10  1  0  0  0
 21 11  1  0  0  0
 11 19  1  0  0  0
 11 20  1  0  0  0
M  END
$$$$
